Circuit: * Z:\home\bdroy\kicad\opamp osc\LT1037_TA01.asc

Direct Newton iteration for .op point succeeded.

Date: Sun May 24 11:05:33 2020
Total elapsed time: 0.355 seconds.

tnom = 27
temp = 27
method = modified trap
totiter = 72032
traniter = 72014
tranpoints = 30194
accept = 21336
rejected = 8858
matrix size = 18
fillins = 15
solver = Normal
Matrix Compiler1: 1.60 KB object code size  0.3/0.1/[0.1]
Matrix Compiler2: off  [0.1]/0.2/0.1

